
<configuration>
	<input>
		<net-file value="wuhan.net.xml"/>
		<route-files value="trips.trips.xml"/>
	</input>
	<output>
		<emission-output value="results2.out.xml"/>
	</output>
</configuration>