<?xml version="1.0" encoding="UTF-8"?>

<!-- generated on Fri Apr  3 14:43:01 2020 by Eclipse SUMO duarouter Version 1.2.0
<configuration xmlns:xsi="http://www.w3.org/2001/XMLSchema-instance" xsi:noNamespaceSchemaLocation="http://sumo.dlr.de/xsd/duarouterConfiguration.xsd">

    <input>
        <net-file value="wuhan.net.xml"/>
        <route-files value="trips.trips.xml"/>
    </input>

    <output>
        <output-file value="routes.rou.xml"/>
        <alternatives-output value="routes.rou.alt.xml"/>
    </output>

    <time>
        <begin value="0"/>
        <end value="10.0"/>
    </time>

    <report>
        <no-warnings value="true"/>
        <ignore-errors value="true"/>
        <no-step-log value="true"/>
    </report>

</configuration>
-->

<routes xmlns:xsi="http://www.w3.org/2001/XMLSchema-instance" xsi:noNamespaceSchemaLocation="http://sumo.dlr.de/xsd/routes_file.xsd">
    <vehicle id="0" depart="0.00">
        <route edges="177262561#5 -177262561#5 -621906925#2 -621906925#1 -621906925#0 233487288#4 233487288#5 233487288#6 233487288#7 177265283#0 177265283#1 177265283#2 177265283#3 177265283#4 177265283#5 177265283#6 177265283#7 177265283#8 -621846035#4 -621846035#3 621846037#0 621846037#1 -621846021#2 -621846021#1 -621846021#0 177265282#2"/>
    </vehicle>
    <vehicle id="1" depart="0.01">
        <route edges="177782714#2 -177789525#0 177788429#3 177788429#4 177788428#10 177788428#11 177788428#12 177788428#13 177788428#14 177788428#15 177788428#16 177788428#17 177788428#18 177788428#19 177788428#20 177788428#21 177788428#22 177788428#23 177788428#24 690674901#0 690674901#1 236668165#0 236668165#1 236668165#2 236668165#3 238804330 495582286 495582285 107057045#1 107057045#2 107057045#3 107057045#4 107057045#5 107057045#6 107057045#7 50539707#4 50539707#5 50539707#6 616205490#0 616205493 616205494 616205495 99464989 99502336 99464992#0 99464992#1 99464992#2 132905544#0 132905544#1 733463851#1 455183567#0 455183567#1 455183567#2 455183567#3 -132654913#2 -132654913#1 132654913#1"/>
    </vehicle>
    <vehicle id="2" depart="0.02">
        <route edges="177265283#5 -621845973#1 -621845993#4 -621845993#3 -621845993#2 -621845993#1 -621845993#0 621845969#3 621845969#4 621845969#5 621845969#6 233487288#6 233487288#7 233487288#8 233487288#9 233487288#10 233487288#11 233487288#12 233487183 -128479432#4 -128479432#3 -128479432#2 -128479432#1 -128479432#0 233487124#0 233487124#1 178329425 233487131#0 233487131#1 233487131#2 233487131#3 233487131#4 233487131#5 233487131#6 233487131#7 236668175#0 236668175#1 236668175#2 177612400#0 177612400#1 177612400#2 177612400#3 177612400#4 456043506#10 456043506#11 456043506#12 456043506#13 456043506#14 456043506#15 178122151#1 178122151#2 178123110#4 178123110#5 178123110#6 178123110#7 178123110#8 178123637 -178123637"/>
    </vehicle>
    <vehicle id="3" depart="0.03">
        <route edges="329778304#0 329778304#1 329778300#0 329778300#1 329778300#2 352076094#6 352076094#7 352076094#8 352076094#9 352076094#10 352076094#11 352076094#12 352076094#13 352076094#14 352076094#15 352076094#16 352076094#17 352076094#18 352076094#19 352076094#20 352076094#21 352076094#22 352076094#23 352076094#24 352076125#0 352076125#1 352076125#2 352076125#3 352076125#4 352076125#5 178427499#0 178427499#1 178427499#2 178427499#3 178427499#4 178427499#5 455529106 178300317#0 178300317#1 178300317#2 178300317#3 178300317#4 178300317#5 178326949 178329470#5 178329470#6 178318963#1 178318963#2 178318963#3 233478886#0 233478886#1"/>
    </vehicle>
    <vehicle id="4" depart="0.04">
        <route edges="177837913 769038283#1 177820521#1 177820521#2 177820521#3 455519147#2 455519147#3 455519147#4 455519147#5 455519147#6 378899869#0 378899869#1 177840279#11 177840279#12 177840279#13 177840279#14 177840279#15 177840279#16 177840279#17 178442992 107057116#9 481237362#0 481237362#1 481237362#2 481237362#3 178427496#0 178427496#1 178427496#2 178427496#3 178427496#4 178427496#5 178427496#6 178427496#7 178427496#8 178427496#9 178427496#10 178427496#11 178427496#12 178427496#13 178427496#14 178427496#15 178427496#16 178427496#17 178427496#18 178427496#19 178427496#20 178427496#21 178427496#22 178427496#23 178427496#24 178427496#25 178427496#26 178427496#27 178300317#0 178300317#1 178300317#2 178427710#0 178427710#1 178427501#1 178427508#1 178427508#2"/>
    </vehicle>
    <vehicle id="5" depart="0.05">
        <route edges="621846033#4 -621846033#4 -621846033#3 -621846033#2 -621846033#1 -621846033#0 177265282#5 177265282#6 177265282#7 177265282#8 177265282#9 177265282#10 177265282#11 177265282#12 177265282#13 177265282#14 128479427#0 128479427#1 233487288#12 233487183 -128479432#4 -128479432#3 -128479432#2 -128479432#1 -128479432#0 233487124#0 233487124#1 178329451#0 178329451#1 178329451#2 178329451#3 178329451#4 178329451#5 178329451#6 690674897#0 690674897#1 690674897#2 690674897#3 455519147#0 455519147#1 455519147#2 455519147#3 455519147#4 455519147#5 455519147#6 378899869#0 378899869#1 132309810#0 132309810#1 132309810#2 132309810#3 132309810#4 132309810#5 132309810#6 132309810#7 132309810#8 132309810#9 132309817#1 481237358#0 481237358#1 481237358#2 481237358#3 378863836#0 378863836#1 378863836#2 378863836#3 378863836#4 378863836#5 378863836#6 378863836#7 378864031#0"/>
    </vehicle>
    <vehicle id="6" depart="0.06">
        <route edges="607704214 331159373#2 -504092201#2 -504092201#1 -504092201#0 -504092202 -504092209#3 -504092209#2 -504092209#1 -504092209#0 -504092203 -504092204#2 -504092204#1 -504092204#0 331159372#3 331159372#4 331159372#5 331159372#6 331159372#7 331159372#8 331159372#9 331159372#10 331159372#11 331159372#12 331159372#13 177840279#0 177840279#1 177840279#2 177840279#3 177840279#4 177840279#5 177840279#6 177840279#7 177840279#8 177840279#9 177840279#10 177840279#11 177840279#12 177840279#13 177840279#14 177840279#15 177840279#16 177840279#17 177840279#18 177840279#19 177840279#20 481237367#3 481237367#4 481237367#5 481237367#6 481237367#7 481237367#8 481237367#9 481237367#10 481237367#11 178437641 178329430#3 107057110#0 107057110#1 772915996#0 772915996#1"/>
    </vehicle>
    <vehicle id="7" depart="0.07">
        <route edges="457977440 457977466#0 457977466#1 457977466#2 457977466#3 457977466#4 481239393 107270921#0 107270921#1 107270921#2 107270921#3 107270921#4 107270921#5 107270921#6 107270921#7 331059134#0 331059134#1 331059134#2 331059134#3 -107270938#4 -107270938#3 -107270938#2 -107270938#1 607902629#3 331059131#0 107270962"/>
    </vehicle>
    <vehicle id="8" depart="0.08">
        <route edges="-177839600#0 177839600#0 177839600#1 177839604#1 177839604#2 177839604#3 177839604#4 177839604#5 177839604#6 177839604#7 177840279#16 177840279#17 178442992 107057116#9 481237362#0 481237362#1 481237362#2 481237362#3 481237370#0 481237370#1 481237370#2 481237370#3 481237370#4 481237370#5 352076084#0 352076084#1 352076084#2 352076084#3 352076084#4 352076084#5 352076084#6"/>
    </vehicle>
    <vehicle id="9" depart="0.09">
        <route edges="621846032#0 -621846022#5 -621846022#4 -621846022#3 -621846022#2 -621846022#1 -621846034#0 177265282#3 177265282#4 177265282#5 177265282#6 177265282#7 177265282#8 177265282#9 177265282#10 177265282#11 177265282#12 177265282#13 177265282#14 128479427#0 128479427#1 233487288#12 233487183 128479426#0 128479426#1 177261202#0 177261202#1 177261202#2 177261202#3 177261202#4 177261202#5 177261202#6 177261202#7 177261206#2 456043584#0 177261195#0 177261195#1 177261195#2 177261195#3 177261195#4 177261195#5 177261195#6 177261195#7 177261195#8 177261195#9 177261195#10 177612401#3 177612401#4 177261193"/>
    </vehicle>
    <vehicle id="10" depart="0.10">
        <route edges="773089363#9 773089363#10 772915990#0 772915990#1 772915990#2 772915990#3 772915990#4 772915990#5 178130804#0 178130804#1 178130804#2 178130804#3 178132119 178329448#11 178329448#12 178329448#13 178329448#14 178329448#15 178329448#16 178329448#17 107057116#7 107057116#8 107057116#9 481237362#0 481237362#1 481237362#2 481237362#3 481237370#0 481237370#1 481237370#2 481237370#3 481237370#4 481237370#5 352076084#0 481237358#3 378863836#0 378863836#1 378863836#2 378863836#3 378863836#4 378863836#5 378863836#6 378863836#7 378864031#0 378864031#1 378864031#2 378864031#3 378864031#4 378864031#5 378864031#6 378864031#7 378864031#8 378864031#9 378864031#10 -300389341#0 300389341#0"/>
    </vehicle>
    <vehicle id="11" depart="0.11">
        <route edges="178308581#13 178309020#1 178329448#2 178329448#3 178329448#4 -178301605#3 -178301605#2 -178301605#1 -178301605#0 50539707#0 50539707#1 178300037#0 178300312#2"/>
    </vehicle>
    <vehicle id="12" depart="0.12">
        <route edges="177618181#1 177618181#2 177618181#3 178329451#2 178329451#3 178329451#4 178329451#5 178329451#6 690674897#0 690674897#1 690674897#2 690674897#3 455519147#0 455519147#1 455519147#2 455519147#3 455519147#4 455519147#5 455519147#6 378899869#0 378899869#1 132309810#0 132309810#1 132309810#2 132309810#3 132309810#4 132309810#5 132309810#6 132309810#7 132309810#8 132309810#9 132309810#10 132309810#11 132309810#12 132309810#13 132309810#14 352076094#11 352076094#12 352076094#13 352076094#14 352076094#15 352076094#16 352076094#17 352076094#18 352076094#19 352076094#20 352076094#21 352076094#22 352076094#23 481239385#4 352076103#6"/>
    </vehicle>
    <vehicle id="13" depart="0.13">
        <route edges="-504092202 -504092209#3 -504092209#2 -504092209#1 -504092209#0 -504092203 -504092204#2 -504092204#1 -504092204#0 331159372#3 331159372#4 331159372#5 27318402#4 27318402#5 27318402#6 27318402#7 27318402#8 27318402#9 27318402#10 107057070#0 107057070#1 107057070#2 107057033 107057050"/>
    </vehicle>
    <vehicle id="14" depart="0.14">
        <route edges="300389338#3 178430283#0 -178430283#0 -300389338#3 -300389338#2 -300389338#1 -300389338#0 352076112#3 352076103#0 352076103#1 352076103#2 352076103#3 352076103#4"/>
    </vehicle>
    <vehicle id="15" depart="0.15">
        <route edges="-178300315#3 178300315#3 773089363#9 773089363#10 772915990#0 772915990#1 772915990#2 772915990#3 772915990#4 772915990#5 178130804#0 178130804#1 178130804#2 178130804#3 178132119 178329448#11 178329448#12 178329448#13 178329448#14 178329448#15 178329448#16 178329448#17 107057116#7 107057116#8 107057116#9 481237362#0 -51209733#4 -51209733#3 -51209733#2"/>
    </vehicle>
    <vehicle id="16" depart="0.16">
        <route edges="369448253#3 -369448253#3 -369448254#0 369448248#1 369448248#2 -140621779#15 -140621779#14 -140621779#13 299054273#4 299054273#5 140620979#0 140620979#1 140620979#2 140620979#3 140620979#4 140620979#5 140620979#6 140620979#7 140620979#8 140620979#9 140620979#10 329696023#6 329696023#7 331059129#0 107270921#0 -329696039#8 -329696039#7"/>
    </vehicle>
    <vehicle id="17" depart="0.17">
        <route edges="177788429#2 177788429#3 177788429#4 177816919#0 177816919#1 177816919#2 177816919#3 28873638#0 28873638#1 28873638#2 28873638#3 28873638#4 28873638#5 28873638#6 28873638#7 28873638#8 28873638#9 50892039#0 50892039#1 50892039#2 50892039#3 50892039#4"/>
    </vehicle>
    <vehicle id="18" depart="0.18">
        <route edges="233487146#1 -128479432#0 233487124#0 233487124#1 178329451#0 178329451#1 178329451#2 178329451#3 178329451#4 178329451#5 178329451#6 690674897#0 690674897#1 690674897#2 690674897#3 455519147#0 455519147#1 455519147#2 455519147#3 455519147#4 455519147#5 455519147#6 378899869#0 378899869#1 132309810#0 132309810#1 132309810#2 132309810#3 132309810#4 132309810#5 132309810#6 132309810#7 132309810#8 132309810#9 132309817#1 481237358#0 481237358#1 481237358#2 481237358#3 378863836#0 378863836#1 378863836#2 378863836#3 378863836#4 378863836#5 378863836#6 378863836#7 378864031#0 378864031#1 378864031#2 378864031#3 378864031#4 378864031#5 378864031#6 378864031#7 378864031#8 378864031#9 378864031#10 -300389341#0 299054273#3"/>
    </vehicle>
    <vehicle id="19" depart="0.19">
        <route edges="177261207#1 177261207#2 177261195#1 233487203#2 177262387 456043584#4 456043506#0 456043506#1 456043506#2 456043506#3 456043506#4 456043506#5 456043506#6 456043506#7 456043506#8 456043506#9 456043506#10 456043506#11 456043506#12 456043506#13 456043506#14 456043506#15 456043506#16 456043506#17 456043506#18 456043506#19 456043506#20 456043506#21 456043506#22 456043506#23 456043506#24 177612407#1 177612407#2 177612407#3 177612407#4 177612407#5 178300310#0 178300310#1 178300310#2 178300310#3 178300310#4 -773089371#3 -773089371#2 -773089371#1 -773089371#0 773089370#0 773089370#1 773089370#2 773089370#3 773089370#4 773089370#5 773089370#6 178329470#3 178329470#4 178329470#5 178329470#6 233478886#6 178329416#0"/>
    </vehicle>
    <vehicle id="20" depart="0.20">
        <route edges="352076094#15 352076094#16 352076094#17 494212531 352076103#11 352076103#12 352076103#13 352076103#14 132310250#0 378864127#5 378864127#6 378864127#7 378864127#8 378864127#9 378864127#10 378864126#0 378864126#1 378864126#2 378864126#3 378864126#4 378864126#5 378864126#6 378864126#7 378864126#8 378864126#9 378864126#10 378864126#11 177820152#0 177820152#1 177820152#2 177820152#3 177820152#4 177820523#0 177820523#1 177820523#2 177820523#3 177820523#4 177814943#0 177814943#1 177814943#2 177814943#3 690674909#5 690674909#6 177629550#1 177629550#2 177629550#3 177629550#4 177629550#5 177629550#6 177629550#7 177629550#8 -177632992#3 -177632992#2 621915003#0 621915003#1 -621915006#1"/>
    </vehicle>
    <vehicle id="21" depart="0.21">
        <route edges="178329461#1 667794411 178335377 178329430#0 178329430#1 107057116#0 107057116#1 107057116#2 107057116#3 107057116#4 107057116#5 107057116#6 178329448#18 178329448#19 178329448#20 178329448#21 178329448#22 178329448#23 178329448#24 178329448#25 378899869#1 132309810#0 132309810#1 132309810#2 132309810#3 132309810#4 132309810#5 132309810#6 410110800#0 410110800#1 410110800#2 769037331#0 769037331#1 329778299 329778290 -329778308 -329778306#1 -329778306#0 -329778296#1 -329778296#0 -329778292"/>
    </vehicle>
    <vehicle id="22" depart="0.22">
        <route edges="50891988#3 132309810#12 132309810#13 132309810#14 132309810#15 132309810#16 132309810#17 132309810#18 188708130 392323861#0 392323861#1 392323861#2 392323861#3 481239380 -140621779#3 -140621779#2 -140621779#1 -140621779#0 107271962#0 107271962#1 107271962#2 107271962#3 300389357#3"/>
    </vehicle>
    <vehicle id="23" depart="0.23">
        <route edges="178329416#4 773089370#6 178329470#3 178300317#8 178300317#9 178300317#10 178300317#11 178300317#12 773089371#0 773089371#1 773089371#2 773089371#3 773089369#0 773089369#1 773089369#2 773089369#3 773089367 773089368#0 773089368#1 773089368#2 773089368#3 773089368#4 773089368#5 773089368#6 773089368#7 773089368#8 773089368#9 456043534#0 456043534#1 177261207#0 177261207#1 177261207#2 177261207#3 177261207#4 233487206#0 233487206#1"/>
    </vehicle>
    <vehicle id="24" depart="0.24">
        <route edges="178427500#2 178427500#3 178427500#4 178427500#5 178427500#6 352076112#0 352076112#1 352076112#2 352076112#3 352076103#0 352076103#1 352076103#2 352076103#3 352076103#4 352076103#5 352076103#6 352076103#7 352076103#8 352076103#9 352076103#10 352076103#11 352076103#12 352076103#13 352076103#14 132310250#0 378864127#5 378864127#6 50891988#3 50891988#4 50891988#5 50891988#6 50891988#7 50892037#0 50892037#1 50892037#2 50892037#3 50892037#4 50892037#5 50892037#6 182331780#0 178329448#36 28873638#9 177840279#3"/>
    </vehicle>
    <vehicle id="25" depart="0.25">
        <route edges="592557102#2 -592557102#2 300389343#0 300389343#1 300389343#2 300389343#3 300389343#4 140620979#3 140620979#4 140620979#5 140620979#6 140620979#7 140620979#8 140620979#9 140620979#10 329696023#6 329696023#7 331059129#0 107270921#0 107270921#1 107270921#2 107270921#3 107270921#4 107270921#5 107270921#6 107270921#7 331059134#0 331059120#1 331059120#2 -607902630#0 -107270923 607902632"/>
    </vehicle>
    <vehicle id="26" depart="0.26">
        <route edges="584850026#5 584850085#5 -584850026#6 -584850026#5 -584850026#4 -584850026#3 -584850026#2 -584850026#1 -584850026#0 -584848524 -582502279#1 -582502279#0 582490105#0 582490105#1 582512789 755372008#0 755372008#1 755372008#2 457498323 178318961#0 178318961#1 233478887#0 233478887#1 233478887#2 233478887#3 233478887#4 233478887#5 233478886#0 233478886#1 233478886#2 233478886#3 178318967 178329470#8 178329470#9 178329470#10 178329470#11 178329470#12 178315821#0 178329443#2 178329443#3 773089363#0 773089363#1 773089363#2 773089363#3 773089363#4"/>
    </vehicle>
    <vehicle id="27" depart="0.27">
        <route edges="-177618182 -177618117#0 233487131#2 233487131#3 233487131#4 233487131#5 233487131#6 233487131#7 236668175#0 236668175#1 236668175#2 177612400#0 177612400#1 177612400#2 177612400#3 177612400#4 456043506#10 456043506#11 456043506#12 456043506#13 456043506#14 456043506#15 178122151#1 178122151#2 178123110#4 178123110#5 178123110#6 178123110#7 178123110#8 178123637"/>
    </vehicle>
    <vehicle id="28" depart="0.28">
        <route edges="107270942#1 107270942#2 607902630#0 607902630#1 331059131#2 331059125#0 331059125#1 107270959#5 107270959#6 107270959#7 107270959#8 107270959#9 332822359 369446905 481239381#0 481239381#1 481239381#2 481239382#1 481239382#2 481239382#3 188708131 378864127#0 378864127#1 378864127#2 378864127#3 352076094#12 352076094#13 352076094#14 352076094#15 352076094#16 352076094#17 352076094#18 352076094#19 352076086#0 352076086#1 352076086#2 352076086#3 352076086#4 352076086#5 352076086#6 178437633#0 178437633#1 178437633#2 178437633#3 178437633#4 178437633#5 178437633#6 178437633#7 178437633#8 178437633#9 178437633#10 178437633#11 178443137 178443138 178443136 481237367#7 481237367#8 481237367#9 379050993 107057100 107057065#1"/>
    </vehicle>
    <vehicle id="29" depart="0.29">
        <route edges="-621906960 -177262561#2 -177262561#1 -177262561#0 128398489#5 128398489#6 128398489#7 233487288#8 233487288#9 233487288#10 233487288#11 233487288#12 233487183 -128479432#4 -128479432#3 -128479432#2 -128479432#1 178329457#0 178329457#1 178329457#2 178329457#3 178329457#4 178329457#5 233487114#0 233487114#1 233487114#2 233487114#3 233487114#4 233487114#5 233487114#6 233487114#7 177634326#0 28842841#0 28842841#1 177788429#1 177788429#2 177788429#3 177788429#4 177816919#0 177816919#1 177816919#2 156596784 772925966#9"/>
    </vehicle>
    <vehicle id="30" depart="0.30">
        <route edges="455519147#0 455519147#1 455519147#2 455519147#3 455519147#4 455519147#5 455519147#6 378899869#0 378899869#1 177840279#11 177840279#12 177840279#13 177840279#14 177840279#15 177840279#16 177840279#17 177840279#18 177840279#19 177840279#20 177840279#21 177840279#22 177840279#23 177840279#24 177840279#25 177840279#26 177840279#27 177840279#28 177840279#29 177840279#30 178329470#0 178329470#1 178329470#2 178329470#3 178329470#4 178329470#5 178329470#6 178329470#7 178329470#8 178329470#9 178329470#10 178329470#11 178329470#12 178315821#0 178315821#1 773089352 178315834 178315820 773089355 773089354 352082868#0 352082868#1 345745879#0 345745879#1 345745879#2"/>
    </vehicle>
    <vehicle id="31" depart="0.31">
        <route edges="621906925#6 621906925#7 177262349#6 177262349#7 177262349#8 233487288#2 233487288#3 233487288#4 233487288#5 233487288#6 233487288#7 233487288#8 233487288#9 233487288#10 233487288#11 233487288#12 233487183 -128479432#4 -128479432#3 -128479432#2 -128479432#1 -128479432#0 233487124#0 233487124#1 178329451#0 178329451#1 178329451#2 178329451#3 178329451#4 178329451#5 178329451#6 690674897#0 690674897#1 690674897#2 690674897#3 769038276#3 177820154#0 177820154#1 177820154#2 177820154#3 177820154#4 177820154#5 177820154#6 178329430#1 178329430#2 178329430#3 107057110#0 107057110#1 107057110#2 772915994#0 772915994#1 772915995 629750135#0 629750135#1 629750135#2 772915988 769038274#0 -178308580#3 -178308580#2 -178308580#1 -178308593 178308581#8 178308581#9 178308581#10 178308581#11 178308581#12 -178309019#1"/>
    </vehicle>
    <vehicle id="32" depart="0.32">
        <route edges="178430452#1 773008390#1 299054270 299054273#20 299054273#21 299054273#22 669263986#0 669263986#1 669263986#2 669263986#3 669263986#4 378864127#10 378864126#0 378864126#1 378864126#2 378864126#3 378864126#4 378864126#5 378864126#6 378864126#7 378864126#8 378864126#9 378864126#10 378864126#11 177820152#0 177820152#1 177820152#2 177820152#3 177820152#4 177820152#5 177820152#6 177820152#7 177820152#8 177820152#9 177820152#10 177261196#0 177261196#1 177261196#2 177261196#3 177261196#4 690674905#0 690674905#1 690674905#2 690674905#3 690674905#4 177621052#0"/>
    </vehicle>
    <vehicle id="33" depart="0.33">
        <route edges="690674909#6 690674909#7 690674909#8 177629405#5 177788428#17 177788428#18 -177814943#2 -177814943#1 -177814943#0 177820528#0 177820528#1 177820528#2 177820528#3 177820528#4 455519147#4 455519147#5 455519147#6 378899869#0 378899869#1 132309810#0 132309810#1 132309810#2 132309810#3 132309810#4 132309810#5 132309810#6 132309810#7 132309810#8 132309810#9 132309817#1 481237358#0 481237358#1 481237358#2 481237358#3 378863836#0 378863836#1 378863836#2 378863836#3 378863836#4 378863836#5 378864036#0 378864036#1 -378864038 178429651#0"/>
    </vehicle>
    <vehicle id="34" depart="0.34">
        <route edges="178123633#1 178123110#7 178123110#8 178123110#9 178123110#10 177612402#1 50539700#2 50539700#3 50539700#4 50539700#5 50539700#6 50539704#0 50539704#1 28833560#8 50539707#5 50539707#6 616205490#0 616205493 616205494 616205495 99464989 99502336 99464992#0 99464992#1 99464992#2 99464992#3 -132727670 132727670"/>
    </vehicle>
    <vehicle id="35" depart="0.35">
        <route edges="-177612410#3 177612401#6 177612401#7 177617884#0 177617884#1 177617884#2 236668176#6 178329461#0 178329461#1 667794411 178335377 178329430#0 178329430#1 178329430#2 178329430#3 107057110#0 107057110#1 772915996#0 690674931#0 690674931#1 -772915999#8 -772915999#7 -772915999#6 -772915999#5 -772915999#4 -772915999#3 -772915999#2 -772915999#1 -772916013#0 -772915932#4"/>
    </vehicle>
    <vehicle id="36" depart="0.36">
        <route edges="178427496#20 178427496#21 178427496#22 178427496#23 178429649#2 379050638#0 379050638#1 379050638#2 379050638#3 379050638#4 379050638#5 379050638#6 379050638#7 379050638#8 379050638#9 379050638#10 379050638#11 379050638#12 379050638#13 379050638#14 379050638#15 379050638#16 379050638#17 379050638#18 178437640 178437633#10 178437633#11 481237367#0 481237367#1 481237367#2 481237367#3 178329448#17 178329448#18 178329448#19 178329448#20 178329448#21 178329448#22 178329448#23 178329448#24 178329448#25 178329448#26 178329448#27 178329448#28 178329448#29 178329448#30 178329448#31 178329448#32 178329448#33 178329448#34 178329448#35 178329448#36 178329448#37 178329448#38 178329448#39 182331776#2 182331776#3 182331776#4 182331776#5 182331776#6 182331776#7 182331776#8 182331776#9 182331776#10 182331776#11 182331776#12 394458752 177783266#0 177783266#1 177783266#2 177783266#3 456043523#6 456043523#7 456043523#8 456043523#9 456043523#10 -177789479#3 -177789479#2"/>
    </vehicle>
    <vehicle id="37" depart="0.37">
        <route edges="177612401#2 177612401#3 177612401#4 177612401#5 177612401#6 177612401#7 177617884#0 177617884#1 177617884#2 236668176#6 107057067#0 107057067#1 107057067#2 177788425#0 177788425#1 690674909#0 178329451#6 690674897#0 690674897#1 690674897#2 177621043#0 177621043#1 178329420 769038278#0 769038278#1 107057117 107057111 107057053 107057112 107057043 772925966#0 772925966#1 772925966#2 772925966#3 -177816924#0 -182331778#2 -182331778#1 182331781#0 -182331781#0"/>
    </vehicle>
    <vehicle id="38" depart="0.38">
        <route edges="765602501#1 765602501#2 -50892012#2 -50892012#1 -50892012#0 178756569#0 178329448#30 178329448#31 178329448#32 178329448#33 178329448#34 178329448#35 178329448#36 178329448#37 178329448#38 178329448#39 178329448#40 178329448#41 178329448#42 178329448#43 178329448#44 178329448#45 178329448#46 178329448#47 767020192#1 767020192#2 767020192#3 767020192#4"/>
    </vehicle>
    <vehicle id="39" depart="0.39">
        <route edges="178440981 178315816#5 178315816#6 773089355 773089354 352082868#0 455183568#1 352082853#1 178315812 158418638 178315832 178315818 233478881#0 233478881#1 233478881#2 178329443#3 773089363#0 773089363#1 773089363#2 773089363#3 773089363#4 773089363#5 773089363#6 773089363#7 773089363#8 773089363#9 773089363#10 772915989 629750136#0 629750136#1 629750136#2 772915993 772915992#0 772915992#1 772915992#2 772915992#3 772915992#4 772915992#5 772915992#6 772915992#7 107057092#0 107057092#1 178335377 107057048#0 107057048#1 107057048#2 231800543#0 231800543#1 231800543#2 231800543#3 177621043#0 177621043#1 178329420 769038278#0 177624353#0 177624353#1 177624349#0 177624349#1 177624349#2 177624349#3 177624349#4 177624349#5 233487114#0 233487114#1 -128398483#1 -128398491"/>
    </vehicle>
    <vehicle id="40" depart="0.40">
        <route edges="-369448258#2 369448251#2 369448248#4 369448248#0 369448248#1 369448248#2 -140621779#15 -140621779#14 -140621779#13 299054273#4 299054273#5 140620979#0 140620979#1 140620979#2 140620979#3 140620979#4 140620979#5 140620979#6 140620979#7 140620979#8 140620979#9 140620979#10 329696023#6 481239383 732745194 329778305#1 329778302#0 352076123#0 352076123#1 732745192 732745193 329834605#1 131361938 331158300"/>
    </vehicle>
    <vehicle id="41" depart="0.41">
        <route edges="233487288#2 233487288#3 233487288#4 233487288#5 233487288#6 233487288#7 233487288#8 233487288#9 233487288#10 233487288#11 233487288#12 233487183 -128479432#4 -128479432#3 -128479432#2 -128479432#1 -128479432#0 233487124#0 233487124#1 178329425 233487131#0 233487131#1 177612406#0 236668158#6"/>
    </vehicle>
    <vehicle id="42" depart="0.42">
        <route edges="-480981736 480981736 480981739 480981738#4 480981738#0 480981741#0 480981741#1 299054273#0 299054273#1 299054273#2 299054273#3 299054273#4 299054273#5 299054273#6 299054273#7 299054273#8 299054273#9 299054273#10 299054273#11 299054273#12 299054273#13 299054273#14 299054273#15 299054273#16 299054273#17 299054273#18 299054273#19 299054273#20 299054273#21 299054273#22 669263986#0 669263986#1 669263986#2 669263986#3 669263986#4 378864127#10 378864126#0 378864126#1 378864126#2 378864126#3 378864126#4 378864126#5 378864126#6 378864126#7 378864126#8 378864126#9 378864126#10 378864126#11 177820152#0 177820152#1 177820152#2 177820152#3 177820152#4 177820152#5 177820152#6 177820152#7 177820152#8 177820152#9 177820152#10 177261196#0 231800543#3 177621043#0 177621043#1 178329420 769038278#0 177624353#0 177624353#1 177624349#0 177624349#1 177624349#2 177624349#3 177624349#4 177624349#5 128398487#0 177265282#0 177265282#1 177265282#2 177265282#3 177265282#4 177265282#5 177265282#6 177265282#7 177265282#8 128479493#0 128479493#1 128479493#2 177265283#4 621845995 -621845993#3 -621845993#2 -621845993#1 621846000#0 621845998#1"/>
    </vehicle>
    <vehicle id="43" depart="0.43">
        <route edges="140621780#0 329696023#1 329696023#2 329696023#3 329696023#4 329696023#5 329696023#6 329696023#7 369446905 481239381#0 481239381#1 481239381#2 481239382#1 481239382#2 481239382#3"/>
    </vehicle>
    <vehicle id="44" depart="0.44">
        <route edges="772915992#0 772915992#1 772915992#2 772915992#3 772915992#4 772915992#5 772915992#6"/>
    </vehicle>
    <vehicle id="45" depart="0.45">
        <route edges="765602501#2 -50892012#2 -50892012#1 -50892012#0 177840279#7 177840279#8 177840279#9 177840279#10 177840279#11 177840279#12 177840279#13 177840279#14 177840279#15 177840279#16 177840279#17 177840279#18 177840279#19 177840279#20 177840279#21 177840279#22 177840279#23 177840279#24 177840279#25 177840279#26 177840279#27 177840279#28 177840279#29 177840279#30 178329470#0 178329470#1 178329470#2 178329470#3 178329470#4 178329470#5 178329470#6 178318963#1 178318963#2 178318963#3 233478886#0"/>
    </vehicle>
    <vehicle id="46" depart="0.46">
        <route edges="-621845996#1 -621845996#0 -621845993#2 -621845993#1 -621845993#0 -621845969#2 -621845969#1 -621845969#0 128479429#1 128479429#2 128479429#3 128479429#4 128479429#5 621846016 233487293#0 233487293#1 233487291#0 233487291#1 177262350#2 177262345#1 177262345#2 128479428#0 128479428#1"/>
    </vehicle>
    <vehicle id="47" depart="0.47">
        <route edges="233478886#4 233478886#5 233478886#6 178329416#0 178329416#1 178329416#2 178329416#3 178329416#4 178329416#5 178329416#6 178329448#0 178329448#1 178329448#2 178329448#3 178329448#4 178329448#5 178329448#6 178329448#7 178329448#8 178329448#9 178329448#10 178329448#11 178329448#12 178329448#13 178329448#14 178329448#15 178329448#16 178329448#17 178329448#18 178329448#19 178329448#20 178329448#21 178329448#22 178329448#23 178329448#24 178329448#25 178329448#26 178329448#27 178329448#28 178329448#29 178329448#30 178329448#31 178329448#32 178329448#33 178329448#34 178329448#35 178329448#36 178329448#37 178329448#38 178329448#39 178329448#40 178329448#41 178329448#42 178329448#43 178329448#44 178329448#45 178329448#46 178329448#47 767020192#1 767020192#2 767020192#3 767020192#4 767020192#5 504092193 504092188"/>
    </vehicle>
    <vehicle id="48" depart="0.48">
        <route edges="-772915933#2 772915933#2 -772916015#1 -772916015#0 -178132122#0 481237367#11 178437641 178329430#3 107057110#0 -178348024 772915992#7 107057092#0 107057092#1 178335377 107057048#0 107057048#1 107057048#2 231800543#0 231800543#1 231800543#2 177261196#1 177261196#2 177261196#3 177261196#4 690674905#0 690674905#1 690674905#2 690674905#3 690674905#4 177621052#0 236668158#10 233487146#0 233487146#1 178329457#0 178329457#1 178329457#2 178329457#3 178329457#4 -621906859"/>
    </vehicle>
    <vehicle id="49" depart="0.49">