<?xml version="1.0" encoding="UTF-8"?>

<!-- generated on Fri Apr  3 14:43:06 2020 by Eclipse SUMO duarouter Version 1.2.0
<configuration xmlns:xsi="http://www.w3.org/2001/XMLSchema-instance" xsi:noNamespaceSchemaLocation="http://sumo.dlr.de/xsd/duarouterConfiguration.xsd">

    <input>
        <net-file value="wuhan.net.xml"/>
        <route-files value="trips.trips.xml"/>
    </input>

    <output>
        <output-file value="trips.trips.xml.tmp"/>
        <write-trips value="true"/>
    </output>

    <time>
        <begin value="0"/>
        <end value="10.0"/>
    </time>

    <report>
        <no-warnings value="true"/>
        <ignore-errors value="true"/>
        <no-step-log value="true"/>
    </report>

</configuration>
-->

<routes xmlns:xsi="http://www.w3.org/2001/XMLSchema-instance" xsi:noNamespaceSchemaLocation="http://sumo.dlr.de/xsd/routes_file.xsd">
    <trip id="0" depart="0.00" from="177262561#5" to="177265282#2"/>
    <trip id="1" depart="0.01" from="177782714#2" to="132654913#1"/>
    <trip id="2" depart="0.02" from="177265283#5" to="-178123637"/>
    <trip id="3" depart="0.03" from="329778304#0" to="233478886#1"/>
    <trip id="4" depart="0.04" from="177837913" to="178427508#2"/>
    <trip id="5" depart="0.05" from="621846033#4" to="378864031#0"/>
    <trip id="6" depart="0.06" from="607704214" to="772915996#1"/>
    <trip id="7" depart="0.07" from="457977440" to="107270962"/>
    <trip id="8" depart="0.08" from="-177839600#0" to="352076084#6"/>
    <trip id="9" depart="0.09" from="621846032#0" to="177261193"/>
    <trip id="10" depart="0.10" from="773089363#9" to="300389341#0"/>
    <trip id="11" depart="0.11" from="178308581#13" to="178300312#2"/>
    <trip id="12" depart="0.12" from="177618181#1" to="352076103#6"/>
    <trip id="13" depart="0.13" from="-504092202" to="107057050"/>
    <trip id="14" depart="0.14" from="300389338#3" to="352076103#4"/>
    <trip id="15" depart="0.15" from="-178300315#3" to="-51209733#2"/>
    <trip id="16" depart="0.16" from="369448253#3" to="-329696039#7"/>
    <trip id="17" depart="0.17" from="177788429#2" to="50892039#4"/>
    <trip id="18" depart="0.18" from="233487146#1" to="299054273#3"/>
    <trip id="19" depart="0.19" from="177261207#1" to="178329416#0"/>
    <trip id="20" depart="0.20" from="352076094#15" to="-621915006#1"/>
    <trip id="21" depart="0.21" from="178329461#1" to="-329778292"/>
    <trip id="22" depart="0.22" from="50891988#3" to="300389357#3"/>
    <trip id="23" depart="0.23" from="178329416#4" to="233487206#1"/>
    <trip id="24" depart="0.24" from="178427500#2" to="177840279#3"/>
    <trip id="25" depart="0.25" from="592557102#2" to="607902632"/>
    <trip id="26" depart="0.26" from="584850026#5" to="773089363#4"/>
    <trip id="27" depart="0.27" from="-177618182" to="178123637"/>
    <trip id="28" depart="0.28" from="107270942#1" to="107057065#1"/>
    <trip id="29" depart="0.29" from="-621906960" to="772925966#9"/>
    <trip id="30" depart="0.30" from="455519147#0" to="345745879#2"/>
    <trip id="31" depart="0.31" from="621906925#6" to="-178309019#1"/>
    <trip id="32" depart="0.32" from="178430452#1" to="177621052#0"/>
    <trip id="33" depart="0.33" from="690674909#6" to="178429651#0"/>
    <trip id="34" depart="0.34" from="178123633#1" to="132727670"/>
    <trip id="35" depart="0.35" from="-177612410#3" to="-772915932#4"/>
    <trip id="36" depart="0.36" from="178427496#20" to="-177789479#2"/>
    <trip id="37" depart="0.37" from="177612401#2" to="-182331781#0"/>
    <trip id="38" depart="0.38" from="765602501#1" to="767020192#4"/>
    <trip id="39" depart="0.39" from="178440981" to="-128398491"/>
    <trip id="40" depart="0.40" from="-369448258#2" to="331158300"/>
    <trip id="41" depart="0.41" from="233487288#2" to="236668158#6"/>
    <trip id="42" depart="0.42" from="-480981736" to="621845998#1"/>
    <trip id="43" depart="0.43" from="140621780#0" to="481239382#3"/>
    <trip id="44" depart="0.44" from="772915992#0" to="772915992#6"/>
    <trip id="45" depart="0.45" from="765602501#2" to="233478886#0"/>
    <trip id="46" depart="0.46" from="-621845996#1" to="128479428#1"/>
    <trip id="47" depart="0.47" from="233478886#4" to="504092188"/>
    <trip id="48" depart="0.48" from="-772915933#2" to="-621906859"/>
    <trip id="49" depart="0.49" from="769037328#2" to="177629890#1"/>
    <trip id="50" depart="0.50" from="331159372#7" to="140621779#1"/>
    <trip id="51" depart="0.51" from="233487293#1" to="-504092196#0"/>
    <trip id="52" depart="0.52" from="378898988#0" to="621907026"/>
    <trip id="53" depart="0.53" from="236668157#0" to="-300389361#4"/>
    <trip id="54" depart="0.54" from="378864126#3" to="-107270938#3"/>
    <trip id="55" depart="0.55" from="177262559#0" to="177612401#0"/>
    <trip id="56" depart="0.56" from="178329470#7" to="769037336#0"/>
    <trip id="57" depart="0.57" from="233487114#2" to="480981738#4"/>
    <trip id="58" depart="0.58" from="-621906979#5" to="107270937#1"/>
    <trip id="59" depart="0.59" from="-621907037" to="50891988#1"/>
    <trip id="60" depart="0.60" from="775265330" to="769037339"/>
    <trip id="61" depart="0.61" from="178329448#25" to="755372016"/>
    <trip id="62" depart="0.62" from="772915991#5" to="772915992#2"/>
    <trip id="63" depart="0.63" from="772915933#1" to="-178319767#0"/>
    <trip id="64" depart="0.64" from="-772845706" to="392323866"/>
    <trip id="65" depart="0.65" from="-343224366#4" to="128398489#0"/>
    <trip id="66" depart="0.66" from="140621780#5" to="481237367#10"/>
    <trip id="67" depart="0.67" from="767020192#9" to="-772916011#0"/>
    <trip id="68" depart="0.68" from="455531149#2" to="131361934"/>
    <trip id="69" depart="0.69" from="50539707#1" to="107057114"/>
    <trip id="70" depart="0.70" from="182331776#3" to="378853096"/>
    <trip id="71" depart="0.71" from="766001073#1" to="-504092202"/>
    <trip id="73" depart="0.73" from="772916006#3" to="621906894"/>
    <trip id="74" depart="0.74" from="107057116#1" to="767020192#8"/>
    <trip id="75" depart="0.75" from="621906962#1" to="177262556#0"/>
    <trip id="76" depart="0.76" from="-765883852" to="772915999#5"/>
    <trip id="77" depart="0.77" from="621845978#1" to="178437633#0"/>
    <trip id="78" depart="0.78" from="-621906940#0" to="455529121#3"/>
    <trip id="79" depart="0.79" from="230891398#0" to="621915006#1"/>
    <trip id="80" depart="0.80" from="-621846024" to="456043523#5"/>
    <trip id="81" depart="0.81" from="667794410#6" to="177821024#5"/>
    <trip id="82" depart="0.82" from="-455183567#4" to="28907665#0"/>
    <trip id="83" depart="0.83" from="504092200#2" to="178438553#1"/>
    <trip id="84" depart="0.84" from="50539704#3" to="51404404#1"/>
    <trip id="85" depart="0.85" from="772915999#9" to="-178127717"/>
    <trip id="87" depart="0.87" from="178329443#1" to="140620973#4"/>
    <trip id="88" depart="0.88" from="766001081#0" to="-178427943#0"/>
    <trip id="89" depart="0.89" from="132727663" to="177629550#0"/>
    <trip id="90" depart="0.90" from="369448257#1" to="621906979#1"/>
    <trip id="91" depart="0.91" from="481237367#0" to="-775266600"/>
    <trip id="92" depart="0.92" from="177792574#1" to="455529115"/>
    <trip id="93" depart="0.93" from="621845973#0" to="177261195#2"/>
    <trip id="94" depart="0.94" from="-621907065#0" to="177796805#1"/>
    <trip id="95" depart="0.95" from="343157891#0" to="177634326#0"/>
    <trip id="96" depart="0.96" from="178309195" to="331059120#3"/>
    <trip id="97" depart="0.97" from="178756569#5" to="621906985#2"/>
    <trip id="98" depart="0.98" from="177617882#6" to="177265282#11"/>
    <trip id="99" depart="0.99" from="-343224366#4" to="-404679829#1"/>
    <trip id="100" depart="1.00" from="-300389341#0" to="182331780#4"/>
    <trip id="101" depart="1.01" from="178300312#2" to="140621780#2"/>
    <trip id="102" depart="1.02" from="299054273#0" to="236668165#0"/>
    <trip id="103" depart="1.03" from="378864127#1" to="-178308581#4"/>
    <trip id="104" depart="1.04" from="628550184#3" to="621845970#0"/>
    <trip id="105" depart="1.05" from="533895309#1" to="299054273#20"/>
    <trip id="106" depart="1.06" from="177821024#1" to="-582504176#7"/>
    <trip id="107" depart="1.07" from="-765883850#6" to="621846022#5"/>
    <trip id="108" depart="1.08" from="481237358#1" to="628550180#0"/>
    <trip id="109" depart="1.09" from="-772915932#1" to="621906885#0"/>
    <trip id="110" depart="1.10" from="177621046#3" to="177796803#1"/>
    <trip id="111" depart="1.11" from="-178123639#0" to="690674909#0"/>
    <trip id="112" depart="1.12" from="178427500#4" to="772915991#4"/>
    <trip id="113" depart="1.13" from="394458750" to="378864127#8"/>
    <trip id="114" depart="1.14" from="177840279#30" to="621907074"/>
    <trip id="115" depart="1.15" from="-504092203" to="140620979#10"/>
    <trip id="116" depart="1.16" from="-177814943#2" to="178329464#11"/>
    <trip id="117" depart="1.17" from="128479433#4" to="177788428#21"/>
    <trip id="118" depart="1.18" from="128479433#10" to="177821024#1"/>
    <trip id="119" depart="1.19" from="769037339" to="329696023#3"/>
    <trip id="120" depart="1.20" from="-128479490#1" to="177792569#8"/>
    <trip id="121" depart="1.21" from="504092204#0" to="177788429#2"/>
    <trip id="123" depart="1.23" from="177265282#14" to="178438539#1"/>
    <trip id="124" depart="1.24" from="-621906928" to="177612400#0"/>
    <trip id="125" depart="1.25" from="178329448#37" to="-182331768#1"/>
    <trip id="126" depart="1.26" from="621906894" to="-29028128#1"/>
    <trip id="127" depart="1.27" from="-178133269" to="178123634#1"/>
    <trip id="128" depart="1.28" from="-178430452#0" to="629358801#0"/>
    <trip id="129" depart="1.29" from="-621846003#0" to="-178303055#1"/>
    <trip id="130" depart="1.30" from="-775280604#4" to="-765596668"/>
    <trip id="131" depart="1.31" from="-621845971#1" to="178329451#2"/>
    <trip id="132" depart="1.32" from="456043506#3" to="140621786#4"/>
    <trip id="133" depart="1.33" from="621906979#2" to="-177262560#0"/>
    <trip id="134" depart="1.34" from="621845978#1" to="-765883851#0"/>
    <trip id="135" depart="1.35" from="132310250#1" to="-621914997#1"/>
    <trip id="136" depart="1.36" from="299054273#2" to="-177627379"/>
    <trip id="137" depart="1.37" from="-178335371#3" to="772925966#7"/>
    <trip id="138" depart="1.38" from="331059120#0" to="-300389341#2"/>
    <trip id="140" depart="1.40" from="584850026#3" to="107057116#2"/>
    <trip id="141" depart="1.41" from="177262352#0" to="177629548#3"/>
    <trip id="142" depart="1.42" from="51209733#5" to="105571819#0"/>
    <trip id="143" depart="1.43" from="177788638#1" to="331159372#7"/>
    <trip id="144" depart="1.44" from="-178443584" to="769038278#0"/>
    <trip id="145" depart="1.45" from="177782713#1" to="178130806#0"/>
    <trip id="146" depart="1.46" from="548693469" to="329834605#0"/>
    <trip id="147" depart="1.47" from="-329696039#1" to="-765883851#1"/>
    <trip id="148" depart="1.48" from="177795028#0" to="494212548"/>
    <trip id="149" depart="1.49" from="-51404404#0" to="769039656#9"/>
    <trip id="150" depart="1.50" from="177627381#4" to="772915999#11"/>
    <trip id="151" depart="1.51" from="177612407#2" to="-772916006#0"/>
    <trip id="152" depart="1.52" from="457879853#6" to="-329696039#5"/>
    <trip id="153" depart="1.53" from="177819323" to="457977440"/>
    <trip id="155" depart="1.55" from="-177627389#0" to="177821024#0"/>
    <trip id="156" depart="1.56" from="107270942#2" to="607902629#0"/>
    <trip id="157" depart="1.57" from="-621845963#7" to="329778290"/>
    <trip id="158" depart="1.58" from="177837916#1" to="-177629548#0"/>
    <trip id="159" depart="1.59" from="-621907065#0" to="773008380#2"/>
    <trip id="160" depart="1.60" from="300389357#4" to="-177629549#0"/>
    <trip id="161" depart="1.61" from="178441078" to="378864127#8"/>
    <trip id="162" depart="1.62" from="-178309022#0" to="-455183567#1"/>
    <trip id="163" depart="1.63" from="177632669#3" to="-29028128#0"/>
    <trip id="164" depart="1.64" from="-455531149#2" to="-481237360#1"/>
    <trip id="165" depart="1.65" from="178120876#0" to="-128479433#9"/>
    <trip id="166" depart="1.66" from="300389357#2" to="177632990#4"/>
    <trip id="167" depart="1.67" from="-177624357#2" to="300389357#6"/>
    <trip id="168" depart="1.68" from="109366494#1" to="128398493#0"/>
    <trip id="169" depart="1.69" from="300389357#2" to="773008402"/>
    <trip id="170" depart="1.70" from="220231553#0" to="457977466#4"/>
    <trip id="171" depart="1.71" from="178318963#3" to="621845973#1"/>
    <trip id="172" depart="1.72" from="-621845996#1" to="-629011508"/>
    <trip id="173" depart="1.73" from="392323874#3" to="-607902630#2"/>
    <trip id="174" depart="1.74" from="329834612" to="158418638"/>
    <trip id="175" depart="1.75" from="-50892005#6" to="132905556#1"/>
    <trip id="176" depart="1.76" from="107057116#1" to="-621906885#3"/>
    <trip id="177" depart="1.77" from="455519146#1" to="178309022#3"/>
    <trip id="178" depart="1.78" from="178329417#0" to="-140621780#5"/>
    <trip id="179" depart="1.79" from="775266599#0" to="-378853097#0"/>
    <trip id="180" depart="1.80" from="408479465#4" to="140621780#7"/>
    <trip id="181" depart="1.81" from="772916006#3" to="178309019#0"/>
    <trip id="182" depart="1.82" from="343224366#3" to="352076103#9"/>
    <trip id="183" depart="1.83" from="177612406#5" to="177624356#4"/>
    <trip id="184" depart="1.84" from="772916015#0" to="621845964#3"/>
    <trip id="185" depart="1.85" from="-621906941#1" to="177627390#3"/>
    <trip id="186" depart="1.86" from="-621845963#3" to="182331774"/>
    <trip id="187" depart="1.87" from="-177814948" to="-369455759"/>
    <trip id="188" depart="1.88" from="621906951#2" to="621846035#4"/>
    <trip id="189" depart="1.89" from="504092200#3" to="392323873#2"/>
    <trip id="190" depart="1.90" from="-621914991" to="107270959#3"/>
    <trip id="191" depart="1.91" from="177261195#5" to="177629408#1"/>
    <trip id="192" depart="1.92" from="300389346#4" to="178440984"/>
    <trip id="193" depart="1.93" from="178329464#3" to="220231553#0"/>
    <trip id="194" depart="1.94" from="772925969#5" to="621906929"/>
    <trip id="195" depart="1.95" from="-177782996#2" to="178329457#4"/>
    <trip id="196" depart="1.96" from="-378853095" to="-621845987#1"/>
    <trip id="197" depart="1.97" from="-765883850#3" to="621906864#0"/>
    <trip id="198" depart="1.98" from="-178309024#1" to="621906940#2"/>
    <trip id="199" depart="1.99" from="177621056#1" to="107057116#9"/>
    <trip id="200" depart="2.00" from="690674909#12" to="495237479#1"/>
    <trip id="201" depart="2.01" from="-178309018" to="177627380#5"/>
    <trip id="202" depart="2.02" from="178329464#15" to="28833560#2"/>
    <trip id="203" depart="2.03" from="28873691#4" to="177624415"/>
    <trip id="204" depart="2.04" from="-50892012#2" to="-99464988#1"/>
    <trip id="205" depart="2.05" from="455183568#0" to="-582504176#3"/>
    <trip id="206" depart="2.06" from="177792569#15" to="-178309023#0"/>
    <trip id="207" depart="2.07" from="-177629549#0" to="140621786#0"/>
    <trip id="208" depart="2.08" from="769038282#0" to="-621846018#0"/>
    <trip id="209" depart="2.09" from="177633143#18" to="140620979#11"/>
    <trip id="210" depart="2.10" from="-765602492" to="378864126#5"/>
    <trip id="211" depart="2.11" from="178427496#27" to="128398498#2"/>
    <trip id="212" depart="2.12" from="455529140#1" to="-623513043"/>
    <trip id="213" depart="2.13" from="177789479#3" to="178127284"/>
    <trip id="214" depart="2.14" from="140620979#1" to="690674905#0"/>
    <trip id="215" depart="2.15" from="404673246#2" to="177792566"/>
    <trip id="216" depart="2.16" from="107057092#0" to="-621845963#8"/>
    <trip id="217" depart="2.17" from="178429644#0" to="-621914991"/>
    <trip id="218" depart="2.18" from="457879853#3" to="-765602487#0"/>
    <trip id="219" depart="2.19" from="-765602501#0" to="772916006#2"/>
    <trip id="220" depart="2.20" from="765596666#1" to="491292702#4"/>
    <trip id="221" depart="2.21" from="178127286#3" to="236668158#5"/>
    <trip id="222" depart="2.22" from="178437633#3" to="236668175#1"/>
    <trip id="223" depart="2.23" from="177618117#1" to="457879853#0"/>
    <trip id="224" depart="2.24" from="178318971#0" to="178318964#1"/>
    <trip id="225" depart="2.25" from="177612449#1" to="178127286#2"/>
    <trip id="226" depart="2.26" from="178309025#1" to="178443138"/>
    <trip id="227" depart="2.27" from="504092196#1" to="-177612807#1"/>
    <trip id="228" depart="2.28" from="-177262556#2" to="772915999#4"/>
    <trip id="229" depart="2.29" from="-177621031#0" to="584850085#4"/>
    <trip id="230" depart="2.30" from="177624349#2" to="769037328#1"/>
    <trip id="231" depart="2.31" from="-621845976" to="621914963#3"/>
    <trip id="232" depart="2.32" from="-369446911#0" to="50892039#6"/>
    <trip id="233" depart="2.33" from="613635263#0" to="455183522#1"/>
    <trip id="234" depart="2.34" from="621906932#1" to="177612002#10"/>
    <trip id="235" depart="2.35" from="-495237488" to="481239381#2"/>
    <trip id="236" depart="2.36" from="128398489#1" to="178427500#3"/>
    <trip id="237" depart="2.37" from="456043523#6" to="621906940#0"/>
    <trip id="238" depart="2.38" from="177617882#1" to="607902629#4"/>
    <trip id="239" depart="2.39" from="755372014#1" to="-50892012#2"/>
    <trip id="240" depart="2.40" from="-177618182" to="178309026#2"/>
    <trip id="242" depart="2.42" from="177801254#2" to="621846041#2"/>
    <trip id="243" depart="2.43" from="-107270931#0" to="178760845#0"/>
    <trip id="244" depart="2.44" from="410110800#2" to="140620979#1"/>
    <trip id="245" depart="2.45" from="177788428#8" to="-178300312#0"/>
    <trip id="246" depart="2.46" from="495237462" to="621914980#0"/>
    <trip id="248" depart="2.48" from="107057104" to="629750137#0"/>
    <trip id="249" depart="2.49" from="329778297#1" to="178309025#1"/>
    <trip id="250" depart="2.50" from="109366494#2" to="765602522#2"/>
    <trip id="251" depart="2.51" from="408478800" to="178130809"/>
    <trip id="252" depart="2.52" from="-772915772#3" to="178427508#1"/>
    <trip id="253" depart="2.53" from="178122933#2" to="495237479#4"/>
    <trip id="254" depart="2.54" from="-177782716#0" to="178313188"/>
    <trip id="255" depart="2.55" from="177612494#2" to="331158302"/>
    <trip id="256" depart="2.56" from="178329451#5" to="-178123202#1"/>
    <trip id="257" depart="2.57" from="-178430283#7" to="107270937#1"/>
    <trip id="258" depart="2.58" from="-178348024" to="-178441854"/>
    <trip id="259" depart="2.59" from="131222928" to="132727682#1"/>
    <trip id="260" depart="2.60" from="457977457#0" to="177840279#29"/>
    <trip id="261" depart="2.61" from="178122933#0" to="772915783#2"/>
    <trip id="262" depart="2.62" from="128398487#1" to="-329696039#2"/>
    <trip id="263" depart="2.63" from="755372014#0" to="158418637"/>
    <trip id="264" depart="2.64" from="331158300" to="-128479435#9"/>
    <trip id="265" depart="2.65" from="495237476#2" to="-50451973#2"/>
    <trip id="266" depart="2.66" from="177839602#1" to="128479428#11"/>
    <trip id="267" depart="2.67" from="178329416#5" to="331159372#9"/>
    <trip id="268" depart="2.68" from="767020192#8" to="331159372#8"/>
    <trip id="269" depart="2.69" from="621845964#1" to="-773089343"/>
    <trip id="270" depart="2.70" from="-177634327" to="331159366#0"/>
    <trip id="271" depart="2.71" from="128479433#8" to="107057082"/>
    <trip id="272" depart="2.72" from="-178300315#2" to="177617880#0"/>
    <trip id="273" depart="2.73" from="621906925#7" to="621914963#4"/>
    <trip id="274" depart="2.74" from="-219846240#1" to="-177262559#4"/>
    <trip id="275" depart="2.75" from="-773008398" to="369448248#1"/>
    <trip id="276" depart="2.76" from="481239393" to="765602506#0"/>
    <trip id="277" depart="2.77" from="178300310#0" to="-140621779#1"/>
    <trip id="279" depart="2.79" from="107057107" to="621845966#0"/>
    <trip id="280" depart="2.80" from="481237363#0" to="-107270937#0"/>
    <trip id="281" depart="2.81" from="-491292695#5" to="-177814945#0"/>
    <trip id="282" depart="2.82" from="128398487#5" to="553570296#0"/>
    <trip id="283" depart="2.83" from="177789840" to="775280602"/>
    <trip id="284" depart="2.84" from="773089370#9" to="177795239"/>
    <trip id="285" depart="2.85" from="-177788637" to="621845973#0"/>
    <trip id="286" depart="2.86" from="378864031#10" to="177814943#2"/>
    <trip id="287" depart="2.87" from="177816924#2" to="107057100"/>
    <trip id="288" depart="2.88" from="607902629#1" to="-621914997#1"/>
    <trip id="289" depart="2.89" from="177265283#1" to="613635263#1"/>
    <trip id="290" depart="2.90" from="107270921#5" to="457869991#1"/>
    <trip id="291" depart="2.91" from="-128479490#2" to="481239396#0"/>
    <trip id="292" depart="2.92" from="182331777#5" to="378898685#3"/>
    <trip id="293" depart="2.93" from="-369448252#2" to="-178443586"/>
    <trip id="294" depart="2.94" from="50451973#4" to="107270938#0"/>
    <trip id="295" depart="2.95" from="-177820521#3" to="156596791#4"/>
    <trip id="296" depart="2.96" from="-177634327" to="-178308581#4"/>
    <trip id="297" depart="2.97" from="773008395#1" to="-621845969#0"/>
    <trip id="298" depart="2.98" from="772925966#7" to="378864032#0"/>
    <trip id="299" depart="2.99" from="-378853096" to="219846240#0"/>
    <trip id="300" depart="3.00" from="178130804#0" to="-456043523#0"/>
    <trip id="301" depart="3.01" from="177265283#7" to="177790763"/>
    <trip id="302" depart="3.02" from="765602497#1" to="-178762307#1"/>
    <trip id="303" depart="3.03" from="582491047#2" to="-484651539"/>
    <trip id="304" depart="3.04" from="107057042" to="329778304#0"/>
    <trip id="305" depart="3.05" from="132309824#1" to="-621845963#3"/>
    <trip id="306" depart="3.06" from="177261195#4" to="230891402#2"/>
    <trip id="308" depart="3.08" from="621906981#0" to="-621845976"/>
    <trip id="309" depart="3.09" from="457879853#5" to="690674894#3"/>
    <trip id="310" depart="3.10" from="-621845969#3" to="178120879#0"/>
    <trip id="311" depart="3.11" from="132309810#16" to="-504092192"/>
    <trip id="312" depart="3.12" from="177627381#0" to="178127286#0"/>
    <trip id="314" depart="3.14" from="457977473#0" to="-177621063#1"/>
    <trip id="315" depart="3.15" from="628550179#2" to="769038274#3"/>
    <trip id="316" depart="3.16" from="331158292#0" to="51209734#2"/>
    <trip id="317" depart="3.17" from="769038283#0" to="-621907049#1"/>
    <trip id="318" depart="3.18" from="769037313#0" to="178443588#2"/>
    <trip id="319" depart="3.19" from="128398489#1" to="-178309019#0"/>
    <trip id="320" depart="3.20" from="-343224368#1" to="177624349#3"/>
    <trip id="321" depart="3.21" from="-621906968#0" to="378864127#3"/>
    <trip id="322" depart="3.22" from="29028027#0" to="178329457#0"/>
    <trip id="323" depart="3.23" from="177840279#26" to="178329448#19"/>
    <trip id="324" depart="3.24" from="28873638#2" to="-177624415"/>
    <trip id="325" depart="3.25" from="177820523#4" to="177265283#13"/>
    <trip id="326" depart="3.26" from="331059129#3" to="-178430283#6"/>
    <trip id="327" depart="3.27" from="352076125#3" to="177624355"/>
    <trip id="328" depart="3.28" from="613635264#1" to="178329448#33"/>
    <trip id="329" depart="3.29" from="-300389346#1" to="50892043#2"/>
    <trip id="330" depart="3.30" from="177629406#5" to="50892039#4"/>
    <trip id="331" depart="3.31" from="178329448#38" to="132310250#3"/>
    <trip id="332" depart="3.32" from="621845967#8" to="582504177#3"/>
    <trip id="333" depart="3.33" from="457977466#4" to="-178123200#1"/>
    <trip id="334" depart="3.34" from="772925966#15" to="-128398489#3"/>
    <trip id="335" depart="3.35" from="504092193" to="769037330#0"/>
    <trip id="336" depart="3.36" from="772915999#9" to="331059122"/>
    <trip id="337" depart="3.37" from="-177633267#3" to="772915999#10"/>
    <trip id="338" depart="3.38" from="-140620979#9" to="177837916#1"/>
    <trip id="340" depart="3.40" from="-177262746#1" to="495234419"/>
    <trip id="341" depart="3.41" from="690674909#16" to="107057038"/>
    <trip id="342" depart="3.42" from="51209734#1" to="495237473"/>
    <trip id="343" depart="3.43" from="177839603#0" to="177789478#2"/>
    <trip id="344" depart="3.44" from="178438535#4" to="331059125#0"/>
    <trip id="345" depart="3.45" from="457956952#0" to="-177621046#1"/>
    <trip id="346" depart="3.46" from="177796805#2" to="50892019#2"/>
    <trip id="347" depart="3.47" from="481239377" to="-132727682#2"/>
    <trip id="348" depart="3.48" from="-51081569#1" to="-178132122#4"/>
    <trip id="349" depart="3.49" from="-582504176#6" to="177621052#0"/>
    <trip id="350" depart="3.50" from="-621845967#1" to="177262735"/>
    <trip id="351" depart="3.51" from="669262203#2" to="107270959#5"/>
    <trip id="352" depart="3.52" from="457879853#4" to="178438559#0"/>
    <trip id="353" depart="3.53" from="-177262557#3" to="-178300315#0"/>
    <trip id="354" depart="3.54" from="-178429652#3" to="264411350#1"/>
    <trip id="355" depart="3.55" from="628550182" to="343224367#1"/>
    <trip id="356" depart="3.56" from="177783266#2" to="481239390"/>
    <trip id="357" depart="3.57" from="177261202#5" to="621914969#1"/>
    <trip id="358" depart="3.58" from="765596666#0" to="765602487#0"/>
    <trip id="359" depart="3.59" from="480981741#1" to="-140620979#3"/>
    <trip id="360" depart="3.60" from="455519147#0" to="765602491#1"/>
    <trip id="361" depart="3.61" from="755372014#1" to="456043506#22"/>
    <trip id="362" depart="3.62" from="-504092195#3" to="352082853#0"/>
    <trip id="363" depart="3.63" from="-132654913#0" to="177262559#1"/>
    <trip id="364" depart="3.64" from="669263988" to="352076103#8"/>
    <trip id="365" depart="3.65" from="-732745204#1" to="-621915003#1"/>
    <trip id="367" depart="3.67" from="236668176#4" to="-621845976"/>
    <trip id="368" depart="3.68" from="765883851#1" to="51209733#4"/>
    <trip id="369" depart="3.69" from="50892039#8" to="-765602531#0"/>
    <trip id="370" depart="3.70" from="177634331#1" to="392323873#1"/>
    <trip id="371" depart="3.71" from="767020192#15" to="772916011#4"/>
    <trip id="372" depart="3.72" from="107270955#3" to="178329448#11"/>
    <trip id="373" depart="3.73" from="-765602490#0" to="-178125313"/>
    <trip id="374" depart="3.74" from="621907072" to="-132905556#0"/>
    <trip id="375" depart="3.75" from="769037344#5" to="178427500#3"/>
    <trip id="376" depart="3.76" from="178326949" to="404679829#1"/>
    <trip id="377" depart="3.77" from="177840279#26" to="621906925#6"/>
    <trip id="378" depart="3.78" from="-177795028#0" to="-178304907#0"/>
    <trip id="379" depart="3.79" from="755372011#0" to="-220231553#2"/>
    <trip id="380" depart="3.80" from="177624359" to="-177621063#4"/>
    <trip id="381" depart="3.81" from="300389341#1" to="178319772"/>
    <trip id="382" depart="3.82" from="765602497#1" to="177820521#1"/>
    <trip id="383" depart="3.83" from="178329464#3" to="-369447214"/>
    <trip id="384" depart="3.84" from="-140620979#5" to="177820521#0"/>
    <trip id="385" depart="3.85" from="582491047#2" to="329778297#2"/>
    <trip id="387" depart="3.87" from="178120876#2" to="178309024#0"/>
    <trip id="388" depart="3.88" from="107057045#5" to="177792574#8"/>
    <trip id="389" depart="3.89" from="-131222928" to="-177632994#1"/>
    <trip id="390" depart="3.90" from="50539707#2" to="773089371#1"/>
    <trip id="391" depart="3.91" from="392323875#0" to="50892037#6"/>
    <trip id="392" depart="3.92" from="378864036#0" to="140620969#1"/>
    <trip id="393" depart="3.93" from="-621846046#0" to="481237370#5"/>
    <trip id="394" depart="3.94" from="178437633#8" to="767020192#3"/>
    <trip id="395" depart="3.95" from="233478887#2" to="-177618117#4"/>
    <trip id="396" depart="3.96" from="178756274" to="621906938#1"/>
    <trip id="397" depart="3.97" from="504092209#2" to="369446911#0"/>
    <trip id="398" depart="3.98" from="178429649#1" to="-177629549#0"/>
    <trip id="399" depart="3.99" from="481239383" to="178300037#3"/>
    <trip id="400" depart="4.00" from="-772915932#4" to="178318963#1"/>
    <trip id="401" depart="4.01" from="621906923#0" to="329834613"/>
    <trip id="402" depart="4.02" from="-178301605#2" to="621914982#2"/>
    <trip id="403" depart="4.03" from="-107270938#5" to="455529115"/>
    <trip id="404" depart="4.04" from="140620969#3" to="456043506#9"/>
    <trip id="405" depart="4.05" from="177624415" to="178429644#4"/>
    <trip id="406" depart="4.06" from="233487288#12" to="772845704#1"/>
    <trip id="407" depart="4.07" from="-28873691#3" to="755372014#0"/>
    <trip id="408" depart="4.08" from="166278586#1" to="178440979"/>
    <trip id="409" depart="4.09" from="772915992#1" to="177262557#0"/>
    <trip id="410" depart="4.10" from="107057112" to="177820648#6"/>
    <trip id="411" depart="4.11" from="-584850085#3" to="50892036"/>
    <trip id="412" depart="4.12" from="107057041" to="-772915783#3"/>
    <trip id="413" depart="4.13" from="182331765" to="-230891402#0"/>
    <trip id="414" depart="4.14" from="177629405#0" to="621845972#2"/>
    <trip id="415" depart="4.15" from="177261196#1" to="455183531#2"/>
    <trip id="416" depart="4.16" from="621906952#0" to="772915994#1"/>
    <trip id="417" depart="4.17" from="178329448#51" to="329696023#3"/>
    <trip id="418" depart="4.18" from="-504092200#0" to="392323874#2"/>
    <trip id="419" depart="4.19" from="775266602#1" to="343224366#5"/>
    <trip id="420" depart="4.20" from="177788636#4" to="177839604#2"/>
    <trip id="421" depart="4.21" from="773008397" to="206797723#1"/>
    <trip id="422" depart="4.22" from="369448257#2" to="-182331774"/>
    <trip id="423" depart="4.23" from="378853094#1" to="236668158#8"/>
    <trip id="424" depart="4.24" from="50892039#1" to="178130804#0"/>